Version 4
SHEET 1 4832 1752
WIRE 3856 640 3600 640
WIRE 3600 672 3600 640
WIRE 3600 800 3600 752
WIRE 3168 880 3120 880
WIRE 3264 880 3168 880
WIRE 3392 880 3344 880
WIRE 3424 880 3392 880
WIRE 3440 880 3424 880
WIRE 3536 880 3520 880
WIRE 3552 880 3536 880
WIRE 3424 976 3424 880
WIRE 3424 976 3328 976
WIRE 3328 1008 3328 976
WIRE 3424 1008 3424 976
WIRE 3600 1120 3600 896
WIRE 3328 1152 3328 1072
WIRE 3424 1152 3424 1072
WIRE 3424 1152 3328 1152
WIRE 3600 1248 3600 1200
WIRE 3856 1248 3856 640
WIRE 3856 1248 3600 1248
WIRE 3424 1312 3424 1152
WIRE 3600 1312 3600 1248
FLAG 3600 1312 0
FLAG 3536 880 gate
FLAG 3424 1312 0
FLAG 3168 880 ESD
FLAG 3392 880 TVS
FLAG 2800 1136 0
SYMBOL res 3360 864 R90
WINDOW 0 0 56 VBottom 2
WINDOW 3 32 56 VTop 2
SYMATTR InstName R3
SYMATTR Value {10m+(120p/X)}
SYMBOL voltage 3600 1104 R0
SYMATTR InstName V1
SYMATTR Value 3.3
SYMBOL res 3584 656 R0
SYMATTR InstName R4
SYMATTR Value 1k
SYMBOL cap 3312 1008 R0
SYMATTR InstName C3
SYMATTR Value {Cp}
SYMBOL res 3536 864 R90
WINDOW 0 0 56 VBottom 2
WINDOW 3 32 56 VTop 2
SYMATTR InstName R5
SYMATTR Value {1m+(120*X)}
SYMBOL IEC61000-4-2_ESD_Generator 2880 1024 R0
WINDOW 0 49 69 Left 2
WINDOW 39 -53 133 Left 2
SYMATTR InstName X1
SYMATTR SpiceLine IEC61000_4_2_test_level=1 td=1p
SYMBOL Xtransil_ST_BI 3408 1008 R0
SYMATTR InstName U1
SYMATTR SpiceModel ESD5B50T1G
SYMBOL xpmos 3552 800 R0
SYMATTR InstName U2
SYMATTR SpiceModel ntr4101pt1
TEXT 3320 1440 Left 2 !.param Cp=1e-30
TEXT 3320 1472 Left 2 !.step param X list 1p 1
TEXT 3040 1520 Left 2 !.tran 150n
TEXT 4392 608 Left 1 !.SUBCKT ESD5B50T1G 1 3\n*******************************************\n* Model Generated by ON Discrete Eval Lab *\n*    Copyright(c) ON Semiconductor        *\n*         All Rights Reserved             *\n*      UNPUBLISHED LICENSED SOFTWARE      *\n*     Contains Proprietary Information    *\n*                                         *\n*   Commercial Use or Resale Restricted   *\n*******************************************\n* Model generated on Oct. 27, 06\n* MODEL FORMAT: PSpice\n*       in   out   \n*node:  1    3    \n*\nX1    1   2    ESD5B50T1G-Z \nX2    3   2    ESD5B50T1G-Z \n*\n.ENDS ESD5B50T1G \n*\n \n.SUBCKT ESD5B50T1G-Z 7 1\n**************************************\n*      Model Generated by MODPEX     *\n*Copyright(c) Symmetry Design Systems*\n*         All Rights Reserved        *\n*    UNPUBLISHED LICENSED SOFTWARE   *\n*   Contains Proprietary Information *\n*      Which is The Property of      *\n*     SYMMETRY OR ITS LICENSORS      *\n*Commercial Use or Resale Restricted *\n*   by Symmetry License Agreement    *\n**************************************\n* Model generated on Oct 27, 06\n* MODEL FORMAT: PSpice\n*     anode cathode\n*node: 7      1\n*    Forward Section\nD1 2 1 MDD1\n.MODEL MDD1 D IS=3.10113e-13 N=1 XTI=1 RS=0.2\n+ CJO=6.24e-11 TT=1e-08\n*    Leakage Current\nR 1 2 MDR 208333\n.MODEL MDR RES TC1=0 TC2=0\n*    Breakdown\nRZ 2 3 0.751274 \nD3 4 3 MDD3\n.MODEL MDD3 D IS=2.5e-15 N=0.5 \nEV1 1 4 6 8 1\nIBV 0 6 0.001\nRBV 6 0 MDRBV 6380\n.MODEL MDRBV RES TC1=0\nD4 8 0 MDD3\nL 7 2 1e-15\nIT 0 8 0.001\n.ENDS ESD5B50T1G-Z
TEXT 3928 568 Left 1 !.SUBCKT ntr4101pt1 1 2 3\n**************************************\n*      Model Generated by MODPEX     *\n*Copyright(c) Symmetry Design Systems*\n*         All Rights Reserved        *\n*    UNPUBLISHED LICENSED SOFTWARE   *\n*   Contains Proprietary Information *\n*      Which is The Property of      *\n*     SYMMETRY OR ITS LICENSORS      *\n*Commercial Use or Resale Restricted *\n*   by Symmetry License Agreement    *\n**************************************\n* Model generated on Oct 21, 03\n* MODEL FORMAT: PSpice\n* Symmetry POWER MOS Model (Version 1.0)\n* External Node Designations\n* Node 1 -> Drain\n* Node 2 -> Gate\n* Node 3 -> Source\nM1 9 7 8 8 MM L=100u W=100u\n* Default values used in MM:\n* The voltage-dependent capacitances are\n* not included. Other default values are:\n*   RS=0 RD=0 LD=0 CBD=0 CBS=0 CGBO=0\n.MODEL MM PMOS LEVEL=1 IS=1e-32\n+VTO=-0.804818 LAMBDA=0 KP=14.9605\n+CGSO=5.82706e-06 CGDO=4.54024e-07\nRS 8 3 0.0433803\nD1 1 3 MD\n.MODEL MD D IS=5.6864e-08 RS=0.0814954 N=1.5 BV=20\n+IBV=0.00025 EG=1.2 XTI=4 TT=0.0001\n+CJO=1.73869e-10 VJ=0.5 M=0.694913 FC=0.5\nRDS 3 1 3.2e+10\nRD 9 1 0.0001\nRG 2 7 6.27142\nD2 5 4 MD1\n* Default values used in MD1:\n*   RS=0 EG=1.11 XTI=3.0 TT=0\n*   BV=infinite IBV=1mA\n.MODEL MD1 D IS=1e-32 N=50\n+CJO=3.84798e-10 VJ=0.5 M=0.857873 FC=1e-08\nD3 5 0 MD2\n* Default values used in MD2:\n*   EG=1.11 XTI=3.0 TT=0 CJO=0\n*   BV=infinite IBV=1mA\n.MODEL MD2 D IS=1e-10 N=1.00001 RS=3.00009e-06\nRL 5 10 1\nFI2 7 9 VFI2 -1\nVFI2 4 0 0\nEV16 10 0 9 7 1\nCAP 11 10 1.76851e-09\nFI1 7 9 VFI1 -1\nVFI1 11 6 0\nRCAP 6 10 1\nD4 6 0 MD3\n* Default values used in MD3:\n*   EG=1.11 XTI=3.0 TT=0 CJO=0\n*   RS=0 BV=infinite IBV=1mA\n.MODEL MD3 D IS=1e-10 N=1.00001\n.ENDS ntr4101pt1
