Version 4
SHEET 1 3008 1124
WIRE 944 -48 864 -48
WIRE 1184 -48 944 -48
WIRE 1184 -32 1184 -48
WIRE 1280 -32 1184 -32
WIRE 864 -16 864 -48
WIRE 944 -16 944 -48
WIRE 1184 -16 1184 -32
WIRE -144 0 -272 0
WIRE 480 16 -48 16
WIRE -272 32 -272 0
WIRE 1232 64 1184 64
WIRE -48 80 -48 16
WIRE -32 80 -48 80
WIRE 304 80 256 80
WIRE 1184 80 1184 64
WIRE 304 96 304 80
WIRE 672 96 656 96
WIRE 864 96 864 64
WIRE 864 96 752 96
WIRE 1232 96 1232 64
WIRE 656 112 656 96
WIRE 864 128 864 96
WIRE -272 144 -272 112
WIRE 1280 144 1280 -32
WIRE 1280 144 1232 144
WIRE -144 176 -144 0
WIRE -32 176 -144 176
WIRE 304 176 304 160
WIRE 304 176 256 176
WIRE 368 176 304 176
WIRE 480 176 480 16
WIRE 480 176 448 176
WIRE 624 176 480 176
WIRE 752 176 624 176
WIRE 784 176 752 176
WIRE 1024 176 880 176
WIRE 1184 176 1184 160
WIRE 1184 176 1024 176
WIRE 304 192 304 176
WIRE 624 192 624 176
WIRE 1024 192 1024 176
WIRE 480 256 480 176
WIRE -32 272 -144 272
WIRE 304 272 304 256
WIRE 304 272 256 272
WIRE -256 288 -256 256
WIRE 624 288 624 256
WIRE 1024 288 1024 272
WIRE -32 368 -48 368
WIRE 480 368 480 336
WIRE 480 368 256 368
WIRE 480 384 480 368
WIRE -256 416 -256 368
WIRE -144 416 -144 272
WIRE -144 416 -256 416
WIRE -256 464 -256 416
WIRE 480 480 480 464
WIRE -480 512 -576 512
WIRE -336 512 -400 512
WIRE -320 512 -336 512
WIRE -336 544 -336 512
WIRE 144 608 144 576
WIRE -336 640 -336 624
WIRE -256 640 -256 560
WIRE -256 640 -336 640
WIRE -256 672 -256 640
FLAG -272 144 0
FLAG -48 368 0
FLAG 480 480 0
FLAG 1024 288 0
FLAG 624 288 0
FLAG 1024 176 OUT
FLAG -272 0 IN
FLAG 944 -16 0
FLAG 656 112 0
FLAG 864 96 G1
FLAG 752 176 D1
FLAG -256 672 0
FLAG 144 688 0
FLAG 144 576 Vbus
FLAG -576 512 G1
FLAG -256 256 Vbus
SYMBOL PowerProducts\\LT3502 112 224 R0
SYMATTR InstName U1
SYMBOL voltage -272 16 R0
SYMATTR InstName V1
SYMATTR Value 12
SYMBOL ind 352 192 R270
WINDOW 0 32 56 VTop 2
WINDOW 3 5 56 VBottom 2
SYMATTR InstName L1
SYMATTR Value 15µ
SYMBOL res 464 240 R0
SYMATTR InstName R2
SYMATTR Value 31.6K
SYMBOL res 464 368 R0
SYMATTR InstName R3
SYMATTR Value 10K
SYMBOL cap 608 192 R0
SYMATTR InstName C2
SYMATTR Value 22µ
SYMBOL res 1008 176 R0
SYMATTR InstName R4
SYMATTR Value 6.6
SYMBOL schottky 288 256 M180
WINDOW 0 22 62 Left 2
WINDOW 3 24 0 Left 2
SYMATTR InstName D1
SYMATTR Value MBR0520L
SYMATTR Description Diode
SYMATTR Type diode
SYMBOL cap 288 96 R0
WINDOW 3 27 54 Left 2
SYMATTR Value .1µ
SYMATTR InstName C3
SYMBOL pmos 784 128 M90
SYMATTR InstName M1
SYMATTR Value FDS4465
SYMBOL voltage 864 80 R180
WINDOW 0 24 96 Left 2
WINDOW 3 46 68 Left 2
WINDOW 123 0 0 Left 2
WINDOW 39 0 0 Left 2
SYMATTR InstName Vcc
SYMATTR Value PULSE(0 5 0 10u 10u 1m 2m)
SYMBOL res 768 80 R90
WINDOW 0 0 56 VBottom 2
WINDOW 3 32 56 VTop 2
SYMATTR InstName R5
SYMATTR Value 10k
SYMBOL bv 1184 80 R180
WINDOW 0 24 96 Left 2
WINDOW 3 24 16 Left 2
SYMATTR InstName B1
SYMATTR Value V=V(G1)*0.66
SYMBOL sw 1184 176 R180
SYMATTR InstName SW1
SYMATTR Value MySwitch
SYMBOL npn -320 464 R0
SYMATTR InstName Q1
SYMATTR Value QPDTC124XT
SYMBOL res -384 496 R90
WINDOW 0 0 56 VBottom 2
WINDOW 3 32 56 VTop 2
SYMATTR InstName R1
SYMATTR Value 22k
SYMBOL res -320 640 R180
WINDOW 0 36 76 Left 2
WINDOW 3 36 40 Left 2
SYMATTR InstName R6
SYMATTR Value 47k
SYMBOL res -272 272 R0
SYMATTR InstName R7
SYMATTR Value 10k
SYMBOL voltage 144 592 R0
SYMATTR InstName Vbus
SYMATTR Value 12
TEXT 568 392 Left 2 !.tran 7.2m startup
TEXT 1288 192 Left 2 !.model MySwitch SW(Ron=.0001 Roff=1000Meg Vt=1.5 Vh=.000001 Lser=0.001 Vser=0)
TEXT 2520 -456 Left 1 !*\n**********************************************************\n*\n* PDTC124XT \n*\n* NXP Semiconductors\n*\n* Resistor equipped NPN transistor (RET)\n* IC   = 100 mA\n* VCEO = 50 V \n* hFE  = min. 80 @ 5V/5mA\n* R1   = 22 Kohm\n* R2   = 47 Kohm\n*\n*\n* Package pinning does not match Spice model pinning.\n* Package: SOT 23\n* \n* Package Pin 1: Base \n* Package Pin 2: Emitter\n* Package Pin 3: Collector \n*\n*\n* Extraction date (week/year): 30/2003\n* Simulator: Spice 3\n*\n**********************************************************\n*#\n* Please note: Resistances R1 and R2 are not part of the \n* model and have to be added separately.\n*\n.MODEL QPDTC124XT NPN\n+ IS = 1.822E-14 \n+ NF = 0.9932 \n+ ISE = 2.894E-16 \n+ NE = 1.4 \n+ BF = 354.4 \n+ IKF = 0.246 \n+ VAF = 182 \n+ NR = 0.9931 \n+ ISC = 9.982E-12 \n+ NC = 1.763 \n+ BR = 14.99 \n+ IKR = 0.05\n+ VAR = 17.9 \n+ RB = 10 \n+ IRB = 5E-06 \n+ RBM = 5 \n+ RE = 0.649 \n+ RC = 1.101 \n+ XTB = 0 \n+ EG = 1.11 \n+ XTI = 3 \n+ CJE = 1.32E-11 \n+ VJE = 0.8401 \n+ MJE = 0.3622 \n+ TF = 1E-32 \n+ XTF = 0 \n+ VTF = 1E+03 \n+ ITF = 0 \n+ PTF = 0 \n+ CJC = 3.821E-12 \n+ VJC = 0.5986 \n+ MJC = 0.3745 \n+ XCJC = 0.6193 \n+ TR = 1E-32\n+ CJS = 0 \n+ VJS = 0.75 \n+ MJS = 0.333 \n+ FC = 0.5\n*##\n*
