**$ENCRYPTED_LIB
**$INTERFACE
***
*$
*TPS62160
*****************************************************************************
* (C) Copyright 2011,2013 Texas Instruments Incorporated. All rights reserved.
*****************************************************************************
** This model is designed as an aid for customers of Texas Instruments.
** TI and its licensors and suppliers make no warranties, either expressed
** or implied, with respect to this model, including the warranties of
** merchantability or fitness for a particular purpose. The model is
** provided solely on an "as is" basis. The entire risk as to its quality
** and performance is with the customer
*****************************************************************************
*
** Released by: WEBENCH Design Center, Texas Instruments Inc.
* Part: TPS62160
* Date: 10/17/2013
* Model Type: Transient
* Simulator: PSpice
* Simulator Version: 16.2.0.s003
* EVM Order Number: TPS62160EVM-627
* EVM Users Guide: SLVU483
* Datasheet: SLVSAM2
* Model Version: Final 1.10
*
*****************************************************************************
*
* Updates:
*
* Final 1.10
* Updated for Power Good Bidirectional delay
*
* Final 1.00
* Release to Web.
*
***************************************************************************
.SUBCKT TPS62160_TRANS VIN EN AGND PGND
+ ETPAD PG FB VOS SW
$CDNENCSTART
eee8c5c7a2bc4b01f045f303678664e7916da0bae22e8cb0bba041dd67c69ce448ea70148a9ac1670c8926c1ac5057c8ccfcd77bf87ca9dc2548a4cb8982a56d
884d75ab7b99c9a31b1301b16df2da0518a0667f25dcbc971e86b4910d5e9e362188b5b152a17daf9740285e0154196ddc18c1bd96216c6f150c5eb921675d6f
795ae4a51f9fb625706b807646b803711f25988e60cb0eda850ca3f9b2181a1e63285b2908224391de59da99418bfcb4c45ab5562fe8d1a619982f1a46c0f0ee
0baafe7e342e88d0f9871118320990df5ea377403811264d89c3f05596c920425ffa6c2bdd972c7d70447005e7f5a399c1f59629ad4817f104aaf19d673a8d0f
a07ef9d35a3d76e9706b807646b80371fe49d117d9630c4d6efc5c8fc0616a7de2d717af9d829c30a4f823ee95b51dbf75963efd3ee34e160ff63032dc4e41c4
bfd81d659a09e4b3d24b51ea77d68888280f5c91c747b2b229ff001d6cb021c9d0cb82308bc9073ccbab22b13944947abffc57f248054b6d5e34a6f794a795c4
4b6085f2012636676f3085441f0c7a2a280f5c91c747b2b229ff001d6cb021c9d0cb82308bc9073ccbab22b13944947abffc57f248054b6d5e34a6f794a795c4
759f2c304c5cd59b0ef47766db739461f835017f3393da0afab923c99698e01b8492e52ca9907137c4995bddfa7b88fc8fb9f7faa0915baa2ce0d424fa7250fa
18a8652e54d572946d03aed826d4eef8e73070a45f1d549c1515ea94bd12638b09f2dbc8169ad9a1eaa385fb7775156ce304760746fb11e593f1401a2b12f86e
9bdec3194044f5b0706b807646b8037144664a27c8536423f7e0f633fa5df42b26c33298a4bc9fd81f18b0e3d84e1593c1f59629ad4817f104aaf19d673a8d0f
239e32968cce86aa706b807646b8037193de5bd5652ef117b5400bdf7f8fdfa571d9ca0293a537668ca817deea7c966d4433c98fb6149c4f4e04b1dbf1e464f4
cfe13d9867e41aa4706b807646b803711f25988e60cb0eda7db038503a174e9c5a6543b5617762523dc343ec7b0f51cde8e5ea5ee59ca244324e476bbed3f796
759f2c304c5cd59baa226ddcd7a97fd3f835017f3393da0ab9750705deeac0d28492e52ca9907137be7b72e16c425c0c8c46f0304e81433d31a2348f8726bfa8
fe2acd7cacb31bcae73070a45f1d549c1515ea94bd12638b09f2dbc8169ad9a1eaa385fb7775156ce304760746fb11e5631222c520810daeb4cba901921c65d0
759f2c304c5cd59bbe34876d55bdd25af835017f3393da0ae8b246cdfd5ab278ce5ec34e6f8ad1caed06f486014718fd6919836be74d742b568f1185523cf068
18a8652e54d5729496ef4592158d15994f447fc7bfeaab9e280f5c91c747b2b229ff001d6cb021c9d0cb82308bc9073ccbab22b13944947adc28b505cccf591e
2102d6771aef6b5a706b807646b80371527dbd0674957f2831c3327034632bb1ebd4628291d6e3a76af9d5413214ba985911b2e9db277617789dfe9e3750721c
f448aa8b445158d3c55c8187f39b70be3dc343ec7b0f51cde8e5ea5ee59ca2443783737dbeedccc6b282cf238aafe2f18296dcd9e8107c7e49add3a5df4289d8
4b6085f2012636675a0aa31c52cddba976617f42cd5d956bde59da99418bfcb4c45ab5562fe8d1a6d1b147bebc067f267ebd6f9cb829ef5fd80547adf9719eea
6475bc7461fc3d72706b807646b8037144664a27c8536423bbd3647f7e4d9ce15296ed020569f7af57e2c5aa808513703dc343ec7b0f51cd92060eee1d5d840f
5da6216585bbdf9e706b807646b80371527dbd0674957f2831c3327034632bb1d49a3b58315a60dfd2bbd7e847d638e1e776e9b255bda08c8cc849879194c8ab
021166ac3753b7b82188b5b152a17daf9740285e0154196ddc18c1bd96216c6f39885e449aa84ac10c678ec07a4293467999b0ac9ce6d7f8a4bf4692cbe0cb57
4b6085f2012636676f3085441f0c7a2a280f5c91c747b2b229ff001d6cb021c9d0cb82308bc9073ccbab22b13944947abffc57f248054b6d5e34a6f794a795c4
62fc68c058e15793706b807646b803711f25988e60cb0edaace3f4f028994be45a6543b5617762523dc343ec7b0f51cde8e5ea5ee59ca244324e476bbed3f796
a57c003a15974cee706b807646b803711f25988e60cb0eda22c619bb73b0cd6763285b2908224391de59da99418bfcb4c45ab5562fe8d1a619982f1a46c0f0ee
2db3a5b16062ab41706b807646b803715ae819d0ac209b1b1aafc7cfd0c9b88dca0b968ef256bb69be541098d8c4300b9da05974a054315f6c79c663ae2ac59e
8dcea2cdd2d3d5cc9783ae8e4821c68fbaa78b47fb353ab3de59da99418bfcb4c45ab5562fe8d1a6d1b147bebc067f267ebd6f9cb829ef5fd80547adf9719eea
bbf0a766f49a242c2637e9cac2aa5ceafd49a287c76beca9cf3db11be05038854433c98fb6149c4f89456563850c5ae82c04091a591628e26693834e57d0f74a
72df4b5a1c755b38706b807646b8037144664a27c8536423484988846dc140ede19819865982a0aebd3f98b802cd7719c1f59629ad4817f104aaf19d673a8d0f
415bb1896fab9a822716e67bb37c7392e4aaf934848e6c95f9cd5bd77adef1b4ce5ec34e6f8ad1caef4f3875e50e3c05b585a4c9552c0d002a994fc66a0ea682
6a892d786cc853c74433c98fb6149c4f89456563850c5ae82c04091a591628e269ffdbfd03246587b820a3b3718f5a5c6dd87f293ead22ce333b121b86b54141
02f1d830c458064c8d039f023d45f3c74433c98fb6149c4f89456563850c5ae82c04091a591628e269ffdbfd03246587b820a3b3718f5a5c057b4f9e586ee6a2
5fd748946993a2d78cc3940d0ca75f0158b8b76bf379ab217d31a43bbe47493265905a8cda4805c41fdb76914943873b5271e93a2769221d2548a4cb8982a56d
d14a7be013205a65cd9f9b0fe66d8ad1f6130e40c9bd4aa15d428f97cf27e7027b5dd9387444756736806a8e381bf9a0de59da99418bfcb4931b499ba88db258
415bb1896fab9a82aa226ddcd7a97fd3e4aaf934848e6c951a45a52e897dd29ece5ec34e6f8ad1ca55e10a8cbbe1e7bffe300f024fcb23281070c2f6c208232c
35096a3e0b2c3669c1f59629ad4817f10a63eba7371847a77869357133ff0f6be46425c0f3ebf3f1ff9404e3c06da711bb9aaf377e592616897753be427ddcaa
1f44d54f2a0109abcc3bf14d21816bfa2188b5b152a17daf9740285e0154196ddc18c1bd96216c6f39885e449aa84ac10c678ec07a429346a8bbf474e4a5c282
237dc9a00aac2c54afa4d8ee2c2d41ede73070a45f1d549c1515ea94bd12638b09f2dbc8169ad9a1eaa385fb7775156ce304760746fb11e593f1401a2b12f86e
8811cc74461313c0706b807646b8037199e9ff185ff7be98c0d636d8bb18a69f8f7433a4197efd053dc343ec7b0f51cde8e5ea5ee59ca244324e476bbed3f796
d689cd79188b84d2706b807646b80371b37e8930bd0d25a56c46df3ced8b21ca6a78c2002dfd535f020dc6f4ca81987d4c6cd0b96e560c8e2607f0dda1a47374
f500035ac54d811fedfde4da305f70fa44aac1ff28ae947063ffd8a57a592f0edc45e4ce5e413dfb78b54ce720b1001e0c9665cf8b9f77f1a5d7d09ae0734b29
7ce2eff26a71cddee71f71e187584171de59da99418bfcb4c45ab5562fe8d1a6d1b147bebc067f267ebd6f9cb829ef5ffae463724762de832d29d3ffd5989b68
7a34240227de46f7706b807646b80371a5b5c5e766eac502b467150e9a22d698c1f59629ad4817f10a63eba7371847a77869357133ff0f6b12a640b78eb866d7
c6670009e44e517c706b807646b80371541d423de02817ec70c01fc6379b5f675a6543b5617762523dc343ec7b0f51cde8e5ea5ee59ca244324e476bbed3f796
760c6a5cfe47d4cb706b807646b80371c542c415c8ead64ecd32c038f3dd1266cd6741a80bc38b1a8dcea2cdd2d3d5cc9783ae8e4821c68fb9549840541e7e65
2b1410deca799d736a78c2002dfd535f020dc6f4ca81987d4c6cd0b96e560c8ed939f182ca2732f0639c7a3c087ec54b5b0a00aa097c126f8335c42b76d31ac3
4b6085f2012636675a0aa31c52cddba976617f42cd5d956bde59da99418bfcb4c45ab5562fe8d1a6d1b147bebc067f267ebd6f9cb829ef5fd80547adf9719eea
08d4e7ae52ad4cab706b807646b803714d50ea52b4823a93eeb2011747192423961007cfdf2c16696a78c2002dfd535f020dc6f4ca81987dcbdaf8447c9dc69f
0f14d9217fafef99706b807646b8037199e9ff185ff7be9869ebc2c4e4a262907ddcfe3116556fc9a94a7661b58b69d41515ea94bd12638b823e7627d910e4d2
415bb1896fab9a829f50c449b546348ce4aaf934848e6c952f865ab55ddc5e1fce5ec34e6f8ad1ca90d81df171eebb85c41ce2ee4ff43816cd0d78d6f30c8c35
aa33655883cb978b6a78c2002dfd535f020dc6f4ca81987d4c6cd0b96e560c8ed939f182ca2732f0639c7a3c087ec54b5b0a00aa097c126f8335c42b76d31ac3
e739768e23ec2870706b807646b80371541d423de02817ecd387b47910ec6f1e5a6543b5617762523dc343ec7b0f51cde8e5ea5ee59ca244324e476bbed3f796
d14a7be013205a65a665d0fac02ce03ef6130e40c9bd4aa1715d8e77818728a16fdec7f729fb1d47a9da5677116a61f0c1f59629ad4817f104aaf19d673a8d0f
7e6fddfd8efbb9b0409e8f8de4d71dcff7053d184fafab952f7e2f9edabe55d3e03726d853bf94a5783af24c607d4f54c636d467ecb0b5ff2fdb594098788838
d29a3819b03a632a706b807646b80371b10f8c8f5d7b15a10cfc026ea770b7b8cb43076903417b7660a188d940e604c11933952b4dcad44cddbcbfc1bd38a8ed
67d2eff95da562744433c98fb6149c4f89456563850c5ae82c04091a591628e269ffdbfd03246587b820a3b3718f5a5c6dd87f293ead22ce333b121b86b54141
4b6085f2012636675a0aa31c52cddba976617f42cd5d956bde59da99418bfcb4c45ab5562fe8d1a6d1b147bebc067f267ebd6f9cb829ef5fd80547adf9719eea
1d8e0afd88a08353706b807646b80371927380a879f5ec619b866ef425aabebb568b79be720e1d7a36806a8e381bf9a0de59da99418bfcb4931b499ba88db258
6bd9931e299a691a706b807646b80371721b512e8212cf04d3587b2757792ba52fdb8673d98428b2df9926a5196e85951773e723fbae44a83a2b6cbae9d4da02
e556b1c15460ae6f38380075bb5248d8280f5c91c747b2b229ff001d6cb021c9d0cb82308bc9073ccbab22b13944947abffc57f248054b6d5e34a6f794a795c4
cdaa385411811e27bfd81d659a09e4b32637e9cac2aa5cea2cecad1ebf804c4bf467148f06ca8e433dc343ec7b0f51cde8e5ea5ee59ca244324e476bbed3f796
114fa6e869ae2eeb706b807646b803718cfb13ff57bb877f5b827c553b693ee8e847dda77d5f9443de59da99418bfcb4c45ab5562fe8d1a619982f1a46c0f0ee
f9c81f2aad4ad1cb706b807646b803714c1a5ee7865c742a75971778a6063093182f7123dafef91e2188b5b152a17daf9740285e0154196d0ef1aab9d6fb2a8b
82d2e7992b7a58af706b807646b80371159cb31a650e125a6d111121783d1ab6cfd91b074ecd5dd61d1785ae08d6df0a825651368d6f7ad6e4e72beed32b1f99
5911b2e9db27761795d7fcca0b5012ccc1f59629ad4817f10a63eba7371847a77869357133ff0f6be46425c0f3ebf3f1ff9404e3c06da7117984e67235022630
bbf0a766f49a242c2637e9cac2aa5cea2cecad1ebf804c4bf467148f06ca8e433dc343ec7b0f51cde8e5ea5ee59ca2443783737dbeedccc63bf70d5c86a0cabd
fcbdee0e00a18c82706b807646b80371159cb31a650e125a6d111121783d1ab69d83ec4ebc4d23100580e96d03c32ab76ca7e1166a71229ac20009a1a3a64d7e
6f9b23ee1fe48910706b807646b80371b93ab62e3a415f61b89115c5534e18191b3ec14f6b9dd67fe8adcb505421019d75963efd3ee34e160ff63032dc4e41c4
bfd81d659a09e4b3d24b51ea77d68888280f5c91c747b2b229ff001d6cb021c9d0cb82308bc9073ccbab22b13944947abffc57f248054b6d5e34a6f794a795c4
4b6085f2012636676f3085441f0c7a2a280f5c91c747b2b229ff001d6cb021c9d0cb82308bc9073ccbab22b13944947abffc57f248054b6d5e34a6f794a795c4
385bb969478bc1fd759d44358812a29dbc139d3e9a41692a178fc80adbbcf30e6b574213c15e8d895ec332bc80db18837e1bd171ec6c2d0bdaf37533172f6b1c
22c8b4d26042e06f2188b5b152a17daf9740285e0154196ddc18c1bd96216c6f39885e449aa84ac10c678ec07a4293467999b0ac9ce6d7f8a4bf4692cbe0cb57
a3f11315c1ba40a1706b807646b803717a34127ba870897d63e046dd307dc133e2fdb242a691b9778fe14a5b22dbf33560a188d940e604c1ecf22f43cd602b91
44286f328a01b55967d2eff95da562744433c98fb6149c4f89456563850c5ae82c04091a591628e269ffdbfd03246587b820a3b3718f5a5c057b4f9e586ee6a2
4b6085f2012636675a0aa31c52cddba976617f42cd5d956bde59da99418bfcb4c45ab5562fe8d1a6d1b147bebc067f267ebd6f9cb829ef5fd80547adf9719eea
f9d40bfe034dc9e4706b807646b803719f4668374a3d95d259cb50bda0fcba5c5dc15dd95a1d807036806a8e381bf9a0de59da99418bfcb4931b499ba88db258
6400e88c0aa4cd28706b807646b803715198a1db3eca956505c31404c473e76cf949372ee73867501515ea94bd12638b09f2dbc8169ad9a184e0e503664ba9be
d70b17c9c4ed7e9a706b807646b80371d82e9631d5dc08c51bf2c6312e310c6e351cc573f2dc847fb60305a69571cbc060a188d940e604c1ecf22f43cd602b91
44286f328a01b55967d2eff95da562744433c98fb6149c4f89456563850c5ae82c04091a591628e269ffdbfd03246587b820a3b3718f5a5c057b4f9e586ee6a2
4b6085f2012636676f3085441f0c7a2a280f5c91c747b2b229ff001d6cb021c9d0cb82308bc9073ccbab22b13944947abffc57f248054b6d5e34a6f794a795c4
22cc75479b3d980a706b807646b80371971fb5cec3eaabb31e06c2a2bf145348950dceafd8ee2cfac1f59629ad4817f10a63eba7371847a7a9207a7e932d61c6
e9f419af62bfe95eeb87848776396383b976f14cf6b3b2ed601714edf0a8d6a06b574213c15e8d89949b4f83ca1bc0e0ca70f4f2e8ae549a9bfe5c8194ae406a
1ecb1f6ea983f876280f5c91c747b2b229ff001d6cb021c9d0cb82308bc9073ccbab22b13944947abffc57f248054b6d11461e7a3eb59a02bf07153274d76869
36384b4991f288fe3ca19cdd275ba5a46f5e2f1458abb797af46e6257a96c1173dc343ec7b0f51cde8e5ea5ee59ca2443783737dbeedccc63bf70d5c86a0cabd
dc18d426fcb57a1049e634e25e706ae831240f9abf68d99ee71f71e187584171de59da99418bfcb4c45ab5562fe8d1a6d1b147bebc067f26c34b1994e6fa7f12
cc09709c562a8286706b807646b80371f14ced83d313f1f9053ca221330680862188b5b152a17daf9740285e0154196ddc18c1bd96216c6f150c5eb921675d6f
b67df0d3ab862a12706b807646b80371159cb31a650e125a8430e9e74c35a67662f3ee5d1d393b17d6d9fe9ed8c44e7c2188b5b152a17dafd9f9653fc40668e4
9e700d1bd10bd6d1706b807646b803711d1785ae08d6df0abaf791ec10d591eee576010d527d559e84ee952ebc28b053aabf4e493d61e04b50794576b4f63d0d
5e907deffd12c5ffdd06c2baef735cae36806a8e381bf9a0de59da99418bfcb4c45ab5562fe8d1a6d1b147bebc067f267ebd6f9cb829ef5fd80547adf9719eea
8767f397bff4c3a731bbfa71d5efb6fe825b843a3aa9ddcdc1f59629ad4817f10a63eba7371847a77869357133ff0f6be46425c0f3ebf3f1d772cadadee653a6
f55d627e5b6a5781706b807646b803715198a1db3eca95658af3649f518cdefe2188b5b152a17daf9740285e0154196ddc18c1bd96216c6f150c5eb921675d6f
843a531dcd4dabf5706b807646b803714b5260a5aff37528a8799943506072418b21034edf29744e1515ea94bd12638b09f2dbc8169ad9a184e0e503664ba9be
a640afca273b027d706b807646b80371aee2197e5894ac19d57a878fa2a8a130280f5c91c747b2b229ff001d6cb021c9d0cb82308bc9073cddf5b004007807bb
cc4ebde65d1469677e23d713569955576b2dc1678832a7211e06c2a2bf145348159cb31a650e125acf9e8da00bacc5551055a156cf5234948531187c64412d8c
e9f419af62bfe95ecc0121b5e20e2076dd03756fad4bf4945af6a6897d531dee774e14ee3514819b714f855d3587b3189025a689fc80373667a82ba84dea3733
dbd8711ac3af6f3e800f0d0bb7fdb59b1515ea94bd12638b09f2dbc8169ad9a1eaa385fb7775156ce304760746fb11e5631222c520810daeb4cba901921c65d0
f558731b40f47bc3b4742cc5fdfe20b3e71f71e187584171de59da99418bfcb4c45ab5562fe8d1a6d1b147bebc067f267ebd6f9cb829ef5fd80547adf9719eea
0be1bd08545f4ec3706b807646b803717f3db5332bd82c63e832aa73b9e12382d770fe7173f29fa4ebabbfb1dcc59d18c1f59629ad4817f104aaf19d673a8d0f
ee34e7210147ec2f706b807646b803715e349f95686f66c6f87451d33cf17fdf6a78c2002dfd535f020dc6f4ca81987d4c6cd0b96e560c8e2607f0dda1a47374
1e36f10390632b7b706b807646b803712a8f7bf4cccda9b3b01d76cf51a4e5e3f949372ee73867501515ea94bd12638b09f2dbc8169ad9a184e0e503664ba9be
782515cfeeba6caa706b807646b8037115a50d90735415e230dea9070e3269bd658774a0775e50042188b5b152a17daf9740285e0154196d0ef1aab9d6fb2a8b
29e36d847caf87f6706b807646b803711e6d92f9b99c04df05ecab542b5d1130ad3f7416b732d1bc4433c98fb6149c4f89456563850c5ae83d0e7a8d5d022995
8e36af18aaaae5525bf8bd63954c8d1fe2fdb242a691b977e2020fb6cfef7c511e06c2a2bf145348f8fe2d14596af3b8783af24c607d4f54e4c96a61b1e14982
e9f419af62bfe95eb585b96681e0ca9b4d8ece8aa2610e5901e637cfcf1cb0236b574213c15e8d89cedf311ed8ed0099d340231c6ea7860049bf6dca2ecdfd7c
49e634e25e706ae80ea9defa8d0ae56b4433c98fb6149c4f89456563850c5ae82c04091a591628e269ffdbfd03246587b820a3b3718f5a5c057b4f9e586ee6a2
573990ceec7c93f8e73070a45f1d549c1515ea94bd12638b09f2dbc8169ad9a1eaa385fb7775156ce304760746fb11e5631222c520810daeb4cba901921c65d0
8e068e41a4042e15706b807646b803713bfa091c931d25243c3a2f7f4082cae380cf1479605a81b9961fca33556500111cd6938560e2f43d2fdb594098788838
5aa875be979324eb706b807646b803713b8a52894bc17718ede35feaca2f82feae9793e0785737a33dc343ec7b0f51cde8e5ea5ee59ca244324e476bbed3f796
e9f419af62bfe95ec12e63f53fc8b6c757969e48b73d10d6f0f530648700e61e6b574213c15e8d89a0b298e566ba49921f6513881bd5cd7b5e38e07ba8b165f5
f44496155f03ed4f6a78c2002dfd535f020dc6f4ca81987d4c6cd0b96e560c8ed939f182ca2732f0639c7a3c087ec54b5b0a00aa097c126f8335c42b76d31ac3
bdadeec1d4eda933706b807646b80371d1f424e22915b4903c3951a7c79d505390be617b827273312188b5b152a17daf9740285e0154196d0ef1aab9d6fb2a8b
385bb969478bc1fd48fcd3a8c0cfea35816a18c12f7dc59bf570cc20edf55b61b1a987df52801fee3591764c2c52b92a18584e07b824038d0d2f110f987a2b40
af399d32d282acb64433c98fb6149c4f89456563850c5ae82c04091a591628e269ffdbfd03246587b820a3b3718f5a5c6dd87f293ead22ce333b121b86b54141
a78fdcc1e2fc2ea7706b807646b80371998de9bdd1a91c7c62f5a28f3962210b36a8238a25b72279de59da99418bfcb4c45ab5562fe8d1a619982f1a46c0f0ee
203f39b487f1cfb1706b807646b80371998de9bdd1a91c7caab6e33a5843c556e74ac5a0f81d75f51dffb53947c4a0503dc343ec7b0f51cd92060eee1d5d840f
cefa4323af94c7c2706b807646b80371159cb31a650e125a6d111121783d1ab6671a79640a111a315aad4844717812511515ea94bd12638b823e7627d910e4d2
e9f419af62bfe95edca29065f7b4a684a544cd2ad177dbd40f94bccd47773a31ab2e7fa5131b5ee366eaeb9fc4cc8ae1dfb65075858027f81e6733ecc0e173fd
8675a01b2db95be7c1f59629ad4817f10a63eba7371847a77869357133ff0f6be46425c0f3ebf3f1ff9404e3c06da711bb9aaf377e592616897753be427ddcaa
385bb969478bc1fd8b96e233b19c70f0348d76f34b2a9fd135cef30725c6e852b6bd9a723a82834bec57459e959e47a5f67402526ca71a01859fb242819a6034
1bce5110ce9978cb1515ea94bd12638b09f2dbc8169ad9a1eaa385fb7775156ce304760746fb11e5631222c520810dae1535035234fe013e5a1338e358fbdda3
211b89c6a612dc69f139e5f79817b7b8ec86ff7d82f8954e280f5c91c747b2b229ff001d6cb021c9d0cb82308bc9073ccbab22b13944947adc28b505cccf591e
32f219704bc54ce64955daeafaa7bdaee73070a45f1d549c1515ea94bd12638b09f2dbc8169ad9a1eaa385fb7775156ce304760746fb11e593f1401a2b12f86e
10f459d39ee6f8ae706b807646b80371998de9bdd1a91c7cff4268c46c2076963de39ec03ca3ecb9c3f285b97bcde0dddf9926a5196e85950a5fe5a10ee369c0
8b76e1023bea0c168dcea2cdd2d3d5cc571415143e3e6168de59da99418bfcb4c45ab5562fe8d1a6d1b147bebc067f267ebd6f9cb829ef5fd80547adf9719eea
cdaa385411811e27bfd81d659a09e4b32637e9cac2aa5cea2cecad1ebf804c4bf467148f06ca8e433dc343ec7b0f51cde8e5ea5ee59ca244324e476bbed3f796
1772a44faf4c4234706b807646b80371cce0b36e576cc27c0d0fb5a377ac2a152188b5b152a17daf9740285e0154196ddc18c1bd96216c6f150c5eb921675d6f
a70a54aea5853b39706b807646b803715198a1db3eca9565d3a399bbbf91c4b62188b5b152a17daf9740285e0154196ddc18c1bd96216c6f150c5eb921675d6f
0382627c5bd012d47bdb37fab3689a5be32da7890934c144726d9a7f6b37359c8318958aa75d45564651b4c215cbe2b1f448aa8b445158d32d602cb3c5dbd2bb
ad0b6fb86357180409f392a0688e506c1515ea94bd12638b09f2dbc8169ad9a1eaa385fb7775156ce304760746fb11e5631222c520810daeb4cba901921c65d0
a3f576b848cd34f98cb7d6aeea51227f14dcbc51bdb3663a6a78c2002dfd535f020dc6f4ca81987d4c6cd0b96e560c8ed939f182ca2732f02195d8d2e3afd8f5
ddf70eae3b592905bfbee1f30725d043f03762c10f68bbac9f156a15bba69e5d2188b5b152a17daf9740285e0154196ddc18c1bd96216c6f150c5eb921675d6f
75af457e39bd0098706b807646b80371c1171e41a8cdaa074475144cc9e1e58336c2938c734b6cd8a32a9f5de4fdf71d60a188d940e604c1ecf22f43cd602b91
44286f328a01b55967d2eff95da562744433c98fb6149c4f89456563850c5ae82c04091a591628e269ffdbfd03246587b820a3b3718f5a5c057b4f9e586ee6a2
4b6085f2012636678ee5eab1ce21437b88f434925876929d6a78c2002dfd535f020dc6f4ca81987d4c6cd0b96e560c8ed939f182ca2732f02195d8d2e3afd8f5
1260d5a3c47af5f5f33fc13fac81fce69779df5742c789bb72852cd2c08e0a7c316f14ad8c599cf2a0338d5c5e380fb46a78c2002dfd535fcd8da6d9af62f9ad
e3e751dbd1290a03706b807646b80371cfa918ddf8d5bdbb7724896434caf032f79ed346fe02bf5dde59da99418bfcb4c45ab5562fe8d1a619982f1a46c0f0ee
a4755d8ce0d1a8ea706b807646b80371c1171e41a8cdaa074475144cc9e1e5831697802d65c709d0b2a6226ee26ca2905314e44f8dbca9aa7846daed4c599468
4f52237e05fcdaf4b31205aa407e75cde847dda77d5f9443de59da99418bfcb4c45ab5562fe8d1a6d1b147bebc067f267ebd6f9cb829ef5fd80547adf9719eea
4b6085f2012636675a0aa31c52cddba976617f42cd5d956bde59da99418bfcb4c45ab5562fe8d1a6d1b147bebc067f267ebd6f9cb829ef5fd80547adf9719eea
567778b18f31b849ad4ddf3978c7fd847d24da9f9b17a24fdfecd3cb6300994df33e87d0de0fdb00c4750af57ce6425a6a78c2002dfd535fcd8da6d9af62f9ad
25d4429300c7c842706b807646b803711b8fe0b023efdc02600f4d95a4f6ee42b43e3dd923d72b28b14cdabdcd6c8ca26a78c2002dfd535fcd8da6d9af62f9ad
0caa1ee8b4415eff706b807646b80371af4a14f000abdfc7ff0e6150f900d846958ea9affacecc6aa32a9f5de4fdf71d60a188d940e604c1ecf22f43cd602b91
44286f328a01b55967d2eff95da562744433c98fb6149c4f89456563850c5ae82c04091a591628e269ffdbfd03246587b820a3b3718f5a5c057b4f9e586ee6a2
4b6085f2012636678ee5eab1ce21437b88f434925876929d6a78c2002dfd535f020dc6f4ca81987d4c6cd0b96e560c8ed939f182ca2732f02195d8d2e3afd8f5
c6b0b261013fc0ee706b807646b803712696cefe62ec04d1e091c9ffbbd3fa5e712f7945e273ad043dc343ec7b0f51cde8e5ea5ee59ca244324e476bbed3f796
8a8174021b1aae96706b807646b803718c96ab53654eab1561a2b2f915a3f0291856e596f24230c6ea9c53a0b1baee592188b5b152a17dafd9f9653fc40668e4
d19fa11588e6e08458de4e583b8480083f47c450c49f27ff573f668fa2ae450ba0d69824ced40c49bcd962ebbd403d4536806a8e381bf9a003c48fe30536b366
c29c435a3c297fb7706b807646b80371af4a14f000abdfc7ff0e6150f900d846b2c541bfd6eb07cfb2a6226ee26ca2905314e44f8dbca9aa7846daed4c599468
4f52237e05fcdaf4b31205aa407e75cde847dda77d5f9443de59da99418bfcb4c45ab5562fe8d1a6d1b147bebc067f267ebd6f9cb829ef5fd80547adf9719eea
4b6085f2012636675a0aa31c52cddba976617f42cd5d956bde59da99418bfcb4c45ab5562fe8d1a6d1b147bebc067f267ebd6f9cb829ef5fd80547adf9719eea
41800b99f9a205fb706b807646b80371ed74d9ca570f986d596f8fe2de8714b7b7fb991056f628821cb2dfc0f36100845911b2e9db277617789dfe9e3750721c
f448aa8b445158d3c55c8187f39b70be3dc343ec7b0f51cde8e5ea5ee59ca2443783737dbeedccc6b282cf238aafe2f18296dcd9e8107c7e49add3a5df4289d8
4b6085f2012636678ee5eab1ce21437b8a4c52e46fea087f6a78c2002dfd535f020dc6f4ca81987d4c6cd0b96e560c8ed939f182ca2732f02195d8d2e3afd8f5
43ea759c0b0fab7da8226f7fdfec0b2b1b41dcc82865d0cf573f668fa2ae450b66c0086fe2144317df860f5de087cecc6a78c2002dfd535fcd8da6d9af62f9ad
8a77ad9c31156fa5706b807646b803717539ab93c8d2363620e796d997525bf2b7fb991056f628821cb2dfc0f36100845911b2e9db277617789dfe9e3750721c
f448aa8b445158d3c55c8187f39b70be3dc343ec7b0f51cde8e5ea5ee59ca2443783737dbeedccc6b282cf238aafe2f18296dcd9e8107c7e49add3a5df4289d8
4b6085f2012636678ee5eab1ce21437b8a4c52e46fea087f6a78c2002dfd535f020dc6f4ca81987d4c6cd0b96e560c8ed939f182ca2732f02195d8d2e3afd8f5
a16523cb4c600880a3e34a01a105a703c93723e51fc07a85a5f1ca928d1c5927726d9a7f6b37359c8318958aa75d45564651b4c215cbe2b16229de77bbf0c9c9
47158635b18b6659c1f59629ad4817f10a63eba7371847a77869357133ff0f6be46425c0f3ebf3f1ff9404e3c06da711bb9aaf377e592616897753be427ddcaa
4b6085f2012636675a0aa31c52cddba976617f42cd5d956bde59da99418bfcb4c45ab5562fe8d1a6d1b147bebc067f267ebd6f9cb829ef5fd80547adf9719eea
8466055fc2f373f8706b807646b80371c87a97c605a3b7513ec410845c4847d1689d7e5e8734bfa37ce4cbbeb2c9f6831515ea94bd12638b823e7627d910e4d2
113762bf3365157b706b807646b8037105e8996ea95c83659d0a97b2c129eb1fcad32421498c4b397e1b051578bead9fbc8010599de6f88b7846daed4c599468
4f52237e05fcdaf4b31205aa407e75cde847dda77d5f9443de59da99418bfcb4c45ab5562fe8d1a6d1b147bebc067f267ebd6f9cb829ef5fd80547adf9719eea
4b6085f2012636676f3085441f0c7a2a280f5c91c747b2b229ff001d6cb021c9d0cb82308bc9073ccbab22b13944947abffc57f248054b6d5e34a6f794a795c4
2e98ac7c3e319630706b807646b80371a805c496b5fd5f163c1f7b0b364cf0be89b675b59fd6b4d736806a8e381bf9a0de59da99418bfcb4931b499ba88db258
f282e7256d2b53a2706b807646b80371c87a97c605a3b751d492b38208e8d5e76a78c2002dfd535f020dc6f4ca81987d4c6cd0b96e560c8e2607f0dda1a47374
a4cbeddfcf2a513f706b807646b80371db6ee240420ff64b133bbfb82504f90c9a50c8dd48d407508dcea2cdd2d3d5cc9783ae8e4821c68fb9549840541e7e65
2b1410deca799d736a78c2002dfd535f020dc6f4ca81987d4c6cd0b96e560c8ed939f182ca2732f0639c7a3c087ec54b5b0a00aa097c126f8335c42b76d31ac3
4b6085f2012636675a0aa31c52cddba976617f42cd5d956bde59da99418bfcb4c45ab5562fe8d1a6d1b147bebc067f267ebd6f9cb829ef5fd80547adf9719eea
193af0afbcea4490706b807646b8037106427c8173d5259357e99ba842582bab09964396128eacb9de59da99418bfcb4c45ab5562fe8d1a619982f1a46c0f0ee
11e1f68fc1a2d87f706b807646b8037105e8996ea95c836549ca8e25849d6bbe2188b5b152a17daf9740285e0154196ddc18c1bd96216c6f150c5eb921675d6f
f7659710cf770f61f60dadfdf2d219cead554db8c05b7558d1ce11a13be26d7931c29d20f62b99693e60f75da70f05d62188b5b152a17dafd9f9653fc40668e4
3bdfb3bcf8540f571b096e7e9e9f1140c2a1a720ef446e412188b5b152a17daf9740285e0154196ddc18c1bd96216c6f39885e449aa84ac1983f8a908ad40cdd
60ed41cac7eb47e5706b807646b803715d68cdcc594bbd23fdaeff754e063c3478a69bd7db414d9436806a8e381bf9a0de59da99418bfcb4931b499ba88db258
2e8c7cbce19797d8b585b96681e0ca9b0071a3e74d4e01ba2f6edcbf7f609c301a90ef228ab70e3c1ec53303430ee9e6a7ae49a67557f5fac8c3963a49b5f0c8
aa5d29736910b210c1f59629ad4817f10a63eba7371847a77869357133ff0f6be46425c0f3ebf3f1ff9404e3c06da711bb9aaf377e592616897753be427ddcaa
cb183ebaf7a8dfba75963efd3ee34e16b0320154828380204e26894942562954f47a15dc89514f6dad0b6fb86357180409f392a0688e506ccaed87c0c09833fd
ed2f43bde00c01eb706b807646b80371d4035583e7eae2bacf12688091d9ff842188b5b152a17daf9740285e0154196ddc18c1bd96216c6f150c5eb921675d6f
1575511bfe79000c706b807646b803712335c134231d6b17f42ff3dc0f3ad62013fa27df9345484bc847e76e8c762ee726de36ac317bb60b6ea909ac1925e3a7
1c7432cde066cf95ba5ee84b4ef1eeaf60a188d940e604c11933952b4dcad44ca68ba69006c80e09f1b6bc29d103b9156d913effe3ea91172fdb594098788838
946bf787f2daa175706b807646b803717539ab93c8d2363626de36ac317bb60be931c75c6dc94edc60a188d940e604c11933952b4dcad44cddbcbfc1bd38a8ed
67d2eff95da562744433c98fb6149c4f89456563850c5ae82c04091a591628e269ffdbfd03246587b820a3b3718f5a5c6dd87f293ead22ce333b121b86b54141
4b6085f2012636675a0aa31c52cddba976617f42cd5d956bde59da99418bfcb4c45ab5562fe8d1a6d1b147bebc067f267ebd6f9cb829ef5fd80547adf9719eea
319743f0822686b0706b807646b803715d68cdcc594bbd2372b01ba6dcf98d33afadf66e2a6fb0d95e5960c2e73fba28f459176957777cfd1b2df296a6bc462b
784dff1b2e8e2f3138380075bb5248d8280f5c91c747b2b229ff001d6cb021c9d0cb82308bc9073ccbab22b13944947abffc57f248054b6d5e34a6f794a795c4
cdaa385411811e27bfd81d659a09e4b32637e9cac2aa5ceafd49a287c76beca9cf3db11be05038854433c98fb6149c4f89456563850c5ae83d0e7a8d5d022995
14c3d97afebb5d51a665d0fac02ce03e697b5a113db1fc9b00929bf6afe710449ffc76140b75403738d847730d715c668dcea2cdd2d3d5ccd573267e41263c5c
dd06c2baef735cae2b1410deca799d736a78c2002dfd535f020dc6f4ca81987d4c6cd0b96e560c8ed939f182ca2732f0639c7a3c087ec54bcee07e9fa7063687
4b6085f2012636678ee5eab1ce21437b775588cc33cd5e602188b5b152a17daf9740285e0154196ddc18c1bd96216c6f39885e449aa84ac1983f8a908ad40cdd
7a4a8a4827d6ebbb706b807646b80371c9f759b1266d3b4bbcc523c9f9917cff8b5b444e37d009ec155bccee1013f23160a188d940e604c1ecf22f43cd602b91
44286f328a01b55967d2eff95da562744433c98fb6149c4f89456563850c5ae82c04091a591628e269ffdbfd03246587b820a3b3718f5a5c057b4f9e586ee6a2
4b6085f2012636675a0aa31c52cddba976617f42cd5d956bde59da99418bfcb4c45ab5562fe8d1a6d1b147bebc067f267ebd6f9cb829ef5fd80547adf9719eea
f96064a489d886e2706b807646b80371665c88090f9b5f31ed25f97cf544e30f185e056f32504ed3eb7be13441b773868595cf19cc821289e4e72beed32b1f99
5911b2e9db27761795d7fcca0b5012ccc1f59629ad4817f10a63eba7371847a77869357133ff0f6be46425c0f3ebf3f1ff9404e3c06da7117984e67235022630
bbf0a766f49a242c2637e9cac2aa5ceafd49a287c76beca9cf3db11be05038854433c98fb6149c4f89456563850c5ae82c04091a591628e26693834e57d0f74a
153d5e4e335911c2706b807646b803719792ccbf0f9d3732288d824207de4164d50ef986cc5bd27e369431df73c50bea14059ffbc4eb49e981e64817808eb0d7
60a188d940e604c16594e2ecfdcb7f146a78c2002dfd535f020dc6f4ca81987d4c6cd0b96e560c8ed939f182ca2732f0639c7a3c087ec54bcee07e9fa7063687
bbf0a766f49a242c2637e9cac2aa5cea2cecad1ebf804c4bf467148f06ca8e433dc343ec7b0f51cde8e5ea5ee59ca2443783737dbeedccc63bf70d5c86a0cabd
91a76cbb9c3a9d47706b807646b803717ab2df0e3e45a5f4deecbe79c191d30b105308ef337cb607f45885ebfac5f03c589af0812576e61b450139be464a895d
b032015482838020d2208d979160a902280f5c91c747b2b229ff001d6cb021c9d0cb82308bc9073ccbab22b13944947abffc57f248054b6d5e34a6f794a795c4
8767f397bff4c3a731bbfa71d5efb6fe102372497787b35c6a78c2002dfd535f020dc6f4ca81987d4c6cd0b96e560c8ed939f182ca2732f02195d8d2e3afd8f5
2e8c7cbce19797d8bc27f931268b4061439e57ad02964ba2917129a9db682a7f45c92b94d42a92f40b202287c2adfb0f683e4ab214c4819793cb2969c2abca59
1c7432cde066cf95ba5ee84b4ef1eeaf60a188d940e604c11933952b4dcad44ca68ba69006c80e09f1b6bc29d103b9156d913effe3ea91172fdb594098788838
2e8c7cbce19797d8f6a2b547dc976ba041e07bc62d811a31a0700110eaad36275ee51d6449b4c4e1cc91313a3a97fabd8dcea2cdd2d3d5ccd573267e41263c5c
dd06c2baef735cae2b1410deca799d736a78c2002dfd535f020dc6f4ca81987d4c6cd0b96e560c8ed939f182ca2732f0639c7a3c087ec54bcee07e9fa7063687
4b6085f2012636675a0aa31c52cddba976617f42cd5d956bde59da99418bfcb4c45ab5562fe8d1a6d1b147bebc067f267ebd6f9cb829ef5fd80547adf9719eea
255b37438971b8b3706b807646b803717e3e3309bf4d6c410c51ed90813caffc8544382d601940327bebc5f33979f9465314e44f8dbca9aa7846daed4c599468
4f52237e05fcdaf4b31205aa407e75cde847dda77d5f9443de59da99418bfcb4c45ab5562fe8d1a6d1b147bebc067f267ebd6f9cb829ef5fd80547adf9719eea
4b6085f2012636675a0aa31c52cddba976617f42cd5d956bde59da99418bfcb4c45ab5562fe8d1a6d1b147bebc067f267ebd6f9cb829ef5fd80547adf9719eea
110b7055400ff6a2706b807646b80371b5109250a482a4e0e8618dfa492640948a3fd038b959e2695e29daa1269d7523589af0812576e61b450139be464a895d
b032015482838020d2208d979160a902280f5c91c747b2b229ff001d6cb021c9d0cb82308bc9073ccbab22b13944947abffc57f248054b6d5e34a6f794a795c4
8767f397bff4c3a731bbfa71d5efb6fe102372497787b35c6a78c2002dfd535f020dc6f4ca81987d4c6cd0b96e560c8ed939f182ca2732f02195d8d2e3afd8f5
f81d6a05d9e6042d706b807646b803714e2f94e67e9453847c66353f104a8be99d0e0db7dc116a9066e5a81e950629dde3c4578213970c3133c80e428ad643d7
88b96b7c831faa4a41097083f6b3a2094433c98fb6149c4f89456563850c5ae82c04091a591628e269ffdbfd03246587b820a3b3718f5a5c057b4f9e586ee6a2
bbf0a766f49a242c2637e9cac2aa5ceafd49a287c76beca9cf3db11be05038854433c98fb6149c4f89456563850c5ae82c04091a591628e26693834e57d0f74a
996591bf56fc8ef6706b807646b80371120e91680122aabbe56c45a22f3bac7ecb43076903417b7660a188d940e604c11933952b4dcad44cddbcbfc1bd38a8ed
67d2eff95da562744433c98fb6149c4f89456563850c5ae82c04091a591628e269ffdbfd03246587b820a3b3718f5a5c6dd87f293ead22ce333b121b86b54141
4b6085f2012636675a0aa31c52cddba976617f42cd5d956bde59da99418bfcb4c45ab5562fe8d1a6d1b147bebc067f267ebd6f9cb829ef5fd80547adf9719eea
274e28382f16fadd706b807646b803710d65ada422911307dd65e6ba88e6476ed19eceacc14389f12188b5b152a17daf9740285e0154196d0ef1aab9d6fb2a8b
b6a5d91ad7d664f2706b807646b803717ab2df0e3e45a5f4deecbe79c191d30be1b03f9cdfca98e2a0e1e80a923cc3b0d2bbd7e847d638e106ca5c9d845745cf
a5257eba54077ab5021166ac3753b7b82188b5b152a17daf9740285e0154196ddc18c1bd96216c6f39885e449aa84ac10c678ec07a429346a8bbf474e4a5c282